 xtb: 6.7.1 (edcfbbe)
          10242518523D

  7  6  0     0  0            999 V2000
   -0.8653    0.0381    0.0000 C   0  0  0  0  0  0  0  0  0  0  0  0
    0.6044    0.0201    0.0000 N   0  0  0  0  0  0  0  0  0  0  0  0
   -1.3496   -0.0521   -0.9589 H   0  0  0  0  0  0  0  0  0  0  0  0
    0.9864    0.4921    0.8281 H   0  0  0  0  0  0  0  0  0  0  0  0
   -1.3496   -0.0521    0.9589 H   0  0  0  0  0  0  0  0  0  0  0  0
    0.9872   -0.9382    0.0000 H   0  0  0  0  0  0  0  0  0  0  0  0
    0.9864    0.4921   -0.8281 H   0  0  0  0  0  0  0  0  0  0  0  0
  1  2  1  0  0  0  0
  1  3  1  0  0  0  0
  2  4  1  0  0  0  0
  1  5  1  0  0  0  0
  2  6  1  0  0  0  0
  2  7  1  0  0  0  0
M  CHG  1   1   1
M  END
